# HF/6-31G* Test

-- No Title Specified --

 0,1
 C
 H,1,R2
 C,1,R3,2,A3
 H,3,R4,1,A4,2,0.,0
 C,3,R5,1,A5,2,180.,0
 H,5,R4,3,A6,1,180.,0
 C,5,R3,3,A5,1,0.,0
 H,7,R2,5,A3,3,180.,0
 C,7,R3,5,A9,3,0.,0
 H,9,R4,7,A4,5,180.,0
 C,1,R3,2,A3,3,180.,0
 H,11,R4,1,A4,2,0.,0
      Variables:
 R2=1.09
 R3=1.4
 R4=1.09
 R5=1.4
 A3=120.00002358
 A4=119.99992615
 A5=120.00002358
 A6=120.00005028
 A9=119.99995285

 1 2 1.000 3 1.500 11 1.500
 2 1 1.000
 3 1 1.500 4 1.000 5 1.500
 4 3 1.000
 5 3 1.500 6 1.000 7 1.500
 6 5 1.000
 7 5 1.500 8 1.000 9 1.500
 8 7 1.000
 9 7 1.500 10 1.000 11 1.500
 10 9 1.000
 11 1 1.500 9 1.500 12 1.000
 12 11 1.000
 
